12
peptide monomer, PBE0/def2-QZVP energy: -248.352741874853
C    -0.6611637   -1.4159110   -0.1449409
H    -0.0112009   -2.2770229   -0.2778563
H    -1.3421397   -1.3384389   -0.9888061
H    -1.2741806   -1.5547070    0.7420675
C     0.0935684   -0.1178981   -0.0123474
O    -0.4831471    0.9573968    0.1442414
N     1.4442015   -0.2154008   -0.0769653
H     1.8451531   -1.1259348   -0.2064804
C     2.3124436    0.9365697    0.0324778
H     1.6759495    1.8048701    0.1672624
H     2.9780331    0.8451145    0.8885706
H     2.9069093    1.0659902   -0.8697814
