13
	Energy:       2.7028027
C         -6.43807        0.92285       -0.21333
C         -5.20704        1.43833       -0.16990
C         -4.00142        0.53900       -0.11385
C         -2.71836        1.32473       -0.07095
C         -1.53976        0.69926       -0.01859
H         -7.30076        1.57994       -0.25357
H         -6.59042       -0.15245       -0.20897
H         -5.08942        2.51868       -0.17567
H         -0.62041        1.27502        0.01203
H         -1.48667       -0.38542       -0.00606
H         -2.73640        2.41127       -0.08212
H         -3.99547       -0.11436       -1.01352
H         -4.06662       -0.09695        0.79591
