13
	Energy:       2.8351307
C         -6.04239        0.82384       -0.19298
C         -4.83895        1.40090       -0.15608
C         -3.60634        0.58623       -0.14551
C         -2.40012        1.17042       -0.10839
H         -6.93743        1.43745       -0.20023
H         -6.14323       -0.25734       -0.21608
H         -4.77223        2.48537       -0.13365
H         -3.68363       -0.49818       -0.16818
C         -1.13669        0.36167       -0.09704
H         -2.32082        2.25404       -0.08569
H         -1.33953       -0.73060       -0.12256
H         -0.56246        0.59409        0.82368
H         -0.52382        0.62911       -0.98268
