13
energy: -39.710360852222 gnorm: 0.000744998039 xtb: 6.7.1 (edcfbbe)
C      1.2638130239    3.6238388718    0.5522685774
W      0.0000011791    0.0000041185    0.0000033011
C     -0.6473773343   -1.8840491685   -0.2748125231
C     -0.7848311584   -0.0003951771    1.8515736620
C      0.7848130885    0.0003825007   -1.8515769124
C      1.7347093111   -0.7032796006    0.7351604278
C     -1.7347067278    0.7032566560   -0.7351842515
O      1.6297462814    4.6888064134    0.7076066235
O     -1.0133103063   -2.9490165583   -0.4301521950
O     -1.2284656224   -0.0006191980    2.8981785499
O      1.2284746854    0.0006246672   -2.8981701731
O      2.7152575581   -1.1008165187    1.1507111199
O     -2.7152573290    1.1008278946   -1.1506968553
