13
 energy: -39.619457110011 xtb: 6.7.1 (edcfbbe)
C            1.23681140857105        3.54904395720206        0.53979758964163
W           -0.00157776249975       -0.00603346100825       -0.00211615187049
C           -0.63792487112524       -1.85307392378924       -0.26944515482322
C           -0.77414405538190        0.02196175086683        1.84724093209650
C            0.78989645727412        0.02367759832894       -1.84412019393515
C            1.73796795834308       -0.67642909437598        0.73887799537605
C           -1.71916593183290        0.72653798624535       -0.73250137283994
O            1.60005224923409        4.60239866736659        0.69490156939118
O           -1.00489504717054       -2.92417506346967       -0.42700360850215
O           -1.22308611513661       -0.00578652754723        2.88892172610390
O            1.24021035953559        0.01066633969051       -2.88552455572248
O            2.71519845262109       -1.08488333809099        1.14602947349274
O           -2.70801292256946        1.10929934835173       -1.13627641396767
