13
 energy: -39.602904511883 xtb: 6.7.1 (edcfbbe)
C            1.43061452979013        4.45205771080141        0.76188257030757
W            0.00382162322324        0.06344748622050        0.03576411301935
C           -0.63476836102631       -1.80883795400773       -0.26486209849533
C           -0.69603448754659        0.19159470596480        1.90268022137065
C            0.90728987783498        0.49843757710511       -1.68983795362622
C            1.81340977869913       -0.40329952033670        0.77857107660382
C           -1.64866994154274        0.94356923131179       -0.71094894413037
O            1.79083435938695        5.50785919513181        0.91849054598279
O           -0.98248694877599       -2.88938647894838       -0.42015618430294
O           -0.95495507418407        0.50601714038725        2.96142281217163
O            1.45036144963762        0.93155825190769       -2.58632242643066
O            2.85554031665929       -0.44119143619052        1.22291637666372
O           -2.49377893542902        1.58587305440001       -1.11079015360953
