27
	Energy:      26.4899669
C         -7.32837        0.38832       -0.10661
C         -6.29649        1.27133       -0.16869
C         -5.19323        1.23441        0.80737
C         -4.15195        0.13376        0.59500
H         -5.65542        1.14732        1.80017
H         -4.70418        2.21714        0.80314
H         -4.58932       -0.86803        0.66401
C         -3.19690        0.25459        1.73842
H         -3.57692        0.20472       -0.33650
C         -2.19401        1.37496        1.51912
H         -2.68510       -0.69835        1.89322
H         -3.79292        0.45064        2.64132
H         -1.52490        1.20971        0.66489
C         -1.39450        1.40965        2.78993
H         -2.66800        2.35015        1.35756
C         -0.20433        0.42522        2.66472
H         -2.08054        1.23680        3.63365
H         -1.04627        2.43707        2.90923
C          1.04715        1.33532        2.62231
H         -0.27673       -0.20652        1.75756
H         -0.23031       -0.33966        3.45892
H          0.95581        2.06418        1.80200
H          2.02234        0.85680        2.49046
H          1.10660        1.94207        3.53449
H         -8.17700        0.42506       -0.76737
H         -7.34153       -0.39880        0.63821
H         -6.24767        2.11247       -0.84425
