13
 energy: -18.764920213090 gnorm: 0.000984367297 xtb: 6.7.1 (edcfbbe)
C            2.34605663791178        0.29676895109648       -0.52698168608374
C            1.19795310535200        0.63080524418473        0.05374202319465
H           -2.92010151920149       -0.80730737568936        1.16704744759118
Cl          -3.66281030843966        0.58831173489857       -0.56003338545519
H           -2.33272476069834       -1.35861962676501       -0.43202607025388
C           -0.04138705804511       -0.07740926212183       -0.16536660627538
H            3.25631356640002        0.84209812155227       -0.34781028640789
H            2.41287453770549       -0.53831527648665       -1.20506762408936
C           -1.18700097303552        0.22750682638867        0.44582059099850
H           -0.00368346370773       -0.90827083119743       -0.85838693215622
H            1.15416818778729        1.47174052460609        0.73324260831761
C           -2.45891773965056       -0.50091418579342        0.22735666633089
H           -1.23385275536194        1.06172492681462        1.13253337216758
