  14
        -24.02651861
 H          1.2732398098        2.1099640044       -0.0002506248
 C          0.7058373954        1.1935085248        0.0004527307
 C          1.3914781320       -0.0181434232        0.0006889206
 O          2.7553621254        0.0095339852       -0.0009558697
 C          0.6754266308       -1.2063725236        0.0005899525
 H          1.1981011493       -2.1538072207       -0.0007851548
 C         -0.7088903059       -1.1870163696        0.0002253463
 H         -1.2579506306       -2.1194638773       -0.0006190630
 C         -1.3914352749        0.0207997103        0.0002204192
 C         -0.6721922981        1.2127913824        0.0003597035
 H         -1.2136946604        2.1447248150       -0.0010177877
 O         -2.7540180903        0.0868186938       -0.0005815236
 H         -3.1220913744       -0.8045511911       -0.0012982116
 H          3.0983888179       -0.8918088700       -0.0018576105
