  14
  -24.026784970000001       0.28502527609569644      !
 H          1.2371412380        2.1317865459        0.0001927877
 C          0.6950265454        1.1954540919       -0.0000464825
 C          1.3916000159       -0.0071162769       -0.0000331599
 O          2.7548885927       -0.0582334509        0.0000376106
 C          0.6861596265       -1.2044343716       -0.0000127408
 H          1.2343321719       -2.1326677754        0.0001442201
 C         -0.6950396376       -1.1954502308       -0.0000458708
 H         -1.2371522448       -2.1317623299        0.0000743816
 C         -1.3916030639        0.0071170959        0.0000296203
 C         -0.6861712869        1.2044312827       -0.0000049167
 H         -1.2343534541        2.1326674631       -0.0000522782
 O         -2.7548673575        0.0582308444        0.0000268703
 H         -3.1116325716       -0.8377213207       -0.0000551725
 H          3.1116590625        0.8377198317        0.0000256128
  14
  -24.026784750000001       0.28495892911783838      !
 H          1.2936653548        2.0972510596        0.0001777842
 C          0.7196798461        1.1847540158       -0.0009316636
 C          1.3912838088       -0.0318706612       -0.0005685808
 O          2.7554689102       -0.0189860217        0.0015233595
 C          0.6612589489       -1.2144485182       -0.0010509927
 H          1.1769044187       -2.1655996538        0.0033503136
 C         -0.7196415902       -1.1847140296       -0.0010476637
 H         -1.2935853315       -2.0971753101        0.0021960174
 C         -1.3912849049        0.0318671394       -0.0009887965
 C         -0.6612615632        1.2144578941       -0.0011690761
 H         -1.1769249313        2.1655876734        0.0042459564
 O         -2.7554922322        0.0189446493        0.0018173289
 H         -3.0870887747        0.9246378891        0.0032377723
 H          3.0869878132       -0.9245911770        0.0023625743
  14
  -24.026518610000000       0.21501699820308787      !
 H          1.2732398098        2.1099640044       -0.0002506248
 C          0.7058373954        1.1935085248        0.0004527307
 C          1.3914781320       -0.0181434232        0.0006889206
 O          2.7553621254        0.0095339852       -0.0009558697
 C          0.6754266308       -1.2063725236        0.0005899525
 H          1.1981011493       -2.1538072207       -0.0007851548
 C         -0.7088903059       -1.1870163696        0.0002253463
 H         -1.2579506306       -2.1194638773       -0.0006190630
 C         -1.3914352749        0.0207997103        0.0002204192
 C         -0.6721922981        1.2127913824        0.0003597035
 H         -1.2136946604        2.1447248150       -0.0010177877
 O         -2.7540180903        0.0868186938       -0.0005815236
 H         -3.1220913744       -0.8045511911       -0.0012982116
 H          3.0983888179       -0.8918088700       -0.0018576105
  14
  -24.026518530000001       0.21499879658337737      !
 H          1.2580119940        2.1194909041        0.0002630062
 C          0.7089213921        1.1870299050       -0.0000788941
 C          1.3914281493       -0.0207948752       -0.0000081635
 O          2.7539968704       -0.0868551212        0.0000875311
 C          0.6721297207       -1.2127429945       -0.0000638835
 H          1.2136118772       -2.1447723618       -0.0002743587
 C         -0.7058563925       -1.1934330213       -0.0000964739
 H         -1.2732415805       -2.1099166166       -0.0003821573
 C         -1.3914616452        0.0181891059       -0.0000121525
 C         -0.6754064420        1.2064209287       -0.0000778379
 H         -1.1981672900        2.1538971089        0.0010019519
 O         -2.7553243727       -0.0096666693        0.0001205587
 H         -3.0982931623        0.8916428423        0.0000476881
 H          3.1220721206        0.8044684597        0.0000613465
