  14
  -24.026784750000001       0.28495892911783838      !
 H          1.2936653548        2.0972510596        0.0001777842
 C          0.7196798461        1.1847540158       -0.0009316636
 C          1.3912838088       -0.0318706612       -0.0005685808
 O          2.7554689102       -0.0189860217        0.0015233595
 C          0.6612589489       -1.2144485182       -0.0010509927
 H          1.1769044187       -2.1655996538        0.0033503136
 C         -0.7196415902       -1.1847140296       -0.0010476637
 H         -1.2935853315       -2.0971753101        0.0021960174
 C         -1.3912849049        0.0318671394       -0.0009887965
 C         -0.6612615632        1.2144578941       -0.0011690761
 H         -1.1769249313        2.1655876734        0.0042459564
 O         -2.7554922322        0.0189446493        0.0018173289
 H         -3.0870887747        0.9246378891        0.0032377723
 H          3.0869878132       -0.9245911770        0.0023625743
