15
	Energy:      21.5497722
Cl        -1.59223       -3.97004        0.85587
Cl        -1.59364        3.97076       -0.85124
S          0.02778        0.00016        0.00012
C         -1.16300       -1.35180        0.29113
C         -1.16346        1.35237       -0.28782
C         -0.42417       -2.65239        0.57318
C         -0.42511        2.65287       -0.57161
H         -1.79552       -1.45791       -0.59653
H         -1.79755       -1.08220        1.14199
H         -1.79374        1.45855        0.60143
H         -1.80020        1.08297       -1.13709
H          0.20355       -2.95181       -0.27194
H          0.20068       -2.57588        1.46851
H          0.20480        2.95209        0.27194
H          0.19746        2.57632       -1.46853
