27
	Energy:     109.2654241
S          0.92056        0.38394        0.08399
Si         3.49983       -3.08363       -0.11949
O          0.03264       -0.92951       -0.57719
O          0.28089        0.63632        1.45756
O          0.43533        1.62592       -0.67948
C          2.79576       -2.04262        1.29112
C          3.22848       -0.56691        1.34012
C          5.35663       -2.89665       -0.17984
C          3.08696       -4.86475        0.25929
C          2.77462       -2.71514       -1.80636
C          2.73950        0.31250        0.18577
H          3.17720       -2.51433        2.22148
H          1.69056       -2.13669        1.29913
H          4.33776       -0.51785        1.38275
H          2.83932       -0.13063        2.28562
H          5.78796       -3.17310        0.80402
H          5.76900       -3.56243       -0.96541
H          5.61565       -1.84433       -0.41618
H          1.98517       -4.98873        0.29552
H          3.50718       -5.51845       -0.53234
H          3.52319       -5.14503        1.23995
H          1.67482       -2.84913       -1.77027
H          3.01575       -1.69356       -2.14898
H          3.19987       -3.43136       -2.53887
H          3.15817       -0.02195       -0.77753
H          3.10999        1.34662        0.34901
H          0.09723       -0.81414       -1.55876
