48
	Energy:      44.3635587
N         -0.19971        0.15132        0.05325
C          1.25245       -0.04544        0.10751
C          1.76257        0.10196        1.53061
O          0.98547        0.42786        2.41802
H         -0.44262        1.13767        0.30578
H          1.47355       -1.08275       -0.22722
C          1.95310        0.94211       -0.83856
H          1.57754        0.80507       -1.87481
H          1.75535        1.98897       -0.52308
H          3.04986        0.77592       -0.85314
H         -0.54350       -0.03598       -0.91685
N          3.07940       -0.12337        1.81450
C          3.64361       -0.00039        3.16256
C          5.17327       -0.05145        3.12661
O          5.74715       -0.47113        2.13092
C          3.04920       -1.11526        4.07325
H          1.94347       -1.03460        4.06744
H          3.31704       -2.10663        3.64507
C          3.48265       -1.07161        5.54549
H          4.57065       -1.26024        5.63934
H          3.23972       -0.07189        5.96836
C          2.77757       -2.13513        6.33825
O          2.94761       -3.43621        6.02024
O          2.05677       -1.82363        7.27461
H          3.69380       -0.36717        1.02488
H          3.36974        1.00933        3.54182
N          5.90132        0.38750        4.19546
C          7.36224        0.36986        4.23763
C          7.81403        0.70148        5.64435
O          7.54533        1.78846        6.13290
H          7.69349       -0.66214        3.99581
H          5.38969        0.73902        5.01880
C          7.94994        1.37358        3.20061
H          7.51591        1.14880        2.20598
H          7.61490        2.40160        3.46154
C          9.48907        1.38394        2.98051
H          9.67417        2.11167        2.15866
C         10.01269        0.01935        2.51323
H         11.09282        0.09044        2.26323
H          9.46883       -0.30934        1.60210
H          9.89133       -0.74886        3.30493
C         10.29540        1.88615        4.18553
H         11.36491        1.98991        3.90303
H         10.25379        1.18300        5.03770
H          9.92618        2.88346        4.50577
O          8.50229       -0.19808        6.38037
H          8.73444       -1.07168        6.03616
H          2.50611       -4.13922        6.51733
