!CAM-B3LYP DEF2-SVP DEF2-SVP/C RIJDX OPT FREQ CPCM(WATER)
!pal8 
%id "cza GS"
%scf
Maxiter  200
TolE 1.0e-12
end
%maxcore 2000
* xyz 0 1
6       -1.375954000     -1.114238000     -0.000001000
6        0.012318000     -1.231322000     -0.000002000
6        0.739601000     -0.045786000     -0.000001000
6        0.093526000      1.186468000      0.000001000
6       -1.300597000      1.159978000      0.000000000
7       -2.026680000      0.046154000      0.000000000
1        0.488853000     -2.204098000     -0.000003000
1        0.625607000      2.129246000      0.000003000
8       -1.958130000      2.342687000      0.000002000
1       -2.918305000      2.175966000      0.000003000
8       -2.111635000     -2.249938000     -0.000001000
1       -3.058281000     -2.018621000     -0.000001000
6        2.233592000     -0.134801000      0.000001000
8        2.845338000     -1.184859000      0.000006000
8        2.828904000      1.059248000     -0.000004000
1        3.798154000      0.935533000     -0.000006000
*
