**DIRAC
.TITLE
  CO
.WAVE FUNCTION
**INTEGRALS
*READIN
.UNCONTRACTED
**HAMILTONIAN
#.NONREL
.LEVY-LEBLOND
#.OPERATOR
# ZDIPLEN
# COMFACTOR
# zff
**WAVE FUNCTION
.SCF
.KR CI
*SCF
.ERGCNV
1.0D-7  5.0D-5
.CLOSED SHELL
14
*KRCICALC
.CI PROGRAM
LUCIAREL
.INACTIVE
 0
.GAS SHELLS
 2
 12 14 / 7
 14 14/ 20
.CIROOTS
 0 3
.MAX CI
 100
.MXCIVE
  600
#.ANALYZ
.RSTRCI
 0
.NOOCCN
**END OF
