%NProcShared=2
#n B3LYP/6-31G(d) Opt Freq

 THC z Avogadro

0 1
C          3.02736        1.17221       -0.47581
C          3.13195        1.31654        1.05752
C          4.25123        0.40544        1.60853
C          4.35625        0.55608        3.14301
C          5.43495       -0.38771        3.71880
C          6.80462       -0.05083        3.12851
C          7.52121        1.04417        3.61270
C          8.76962        1.36155        3.07104
C          9.32295        0.56005        2.06915
C          8.60591       -0.53853        1.58226
C          7.34984       -0.83600        2.11175
O          9.09316       -1.31038        0.52705
C         10.51812       -1.32832        0.38832
C         10.93445        0.15457        0.18829
H         10.25694        0.54452       -0.58784
C         10.66784        0.97092        1.46492
H         10.61130        2.03766        1.19926
C         11.78330        0.80930        2.46369
C         13.02271        0.41855        2.13965
C         13.45220        0.10241        0.73037
C         12.36794        0.45279       -0.30736
C         14.09088        0.26747        3.19043
C         10.83629       -2.16266       -0.87318
C         11.08585       -2.06027        1.63185
O          9.46631        2.48606        3.51274
H          2.22639        1.82626       -0.85200
H          2.79461        0.12954       -0.73921
H          3.97928        1.46171       -0.94571
H          2.16954        1.03552        1.51193
H          3.35491        2.36541        1.30626
H          4.02459       -0.64225        1.35881
H          5.20590        0.68976        1.14103
H          3.38730        0.30485        3.60083
H          4.61090        1.59712        3.39342
H          5.17077       -1.43171        3.49273
H          5.47540       -0.26538        4.81180
H          7.08996        1.65408        4.39865
H          6.79271       -1.67736        1.71545
H         11.55675        1.03824        3.50382
H         13.72166       -0.95871        0.64321
H         14.34980        0.69165        0.48842
H         12.57911       -0.04861       -1.26327
H         12.42126        1.53945       -0.47683
H         13.70498        0.49219        4.19563
H         14.92254        0.95294        2.97004
H         14.46711       -0.76622        3.18002
H         10.43807       -1.65912       -1.76661
H         10.36530       -3.15306       -0.78562
H         11.92219       -2.29713       -0.98329
H         10.86142       -1.52648        2.56498
H         12.16801       -2.21661        1.55853
H         10.60737       -3.04916        1.69016
H          8.97901        2.98052        4.16073

