4571928
  -OEChem-07102113243D

 22 22  0     0  0  0  0  0  0999 V2000
    3.0772   -0.0629    0.4850 Cl  0  0  0  0  0  0  0  0  0  0  0  0
    1.5435   -0.5491   -0.8625 P   0  0  0  0  0  0  0  0  0  0  0  0
    0.7246    0.8595   -0.8967 O   0  0  0  0  0  0  0  0  0  0  0  0
    0.5179   -1.3178    0.1446 O   0  0  0  0  0  0  0  0  0  0  0  0
   -0.4293    0.8328   -0.0295 C   0  0  0  0  0  0  0  0  0  0  0  0
   -0.7707   -0.6724    0.1365 C   0  0  0  0  0  0  0  0  0  0  0  0
   -0.0468    1.5527    1.2781 C   0  0  0  0  0  0  0  0  0  0  0  0
   -1.5372    1.6481   -0.7075 C   0  0  0  0  0  0  0  0  0  0  0  0
   -1.6103   -1.2808   -1.0074 C   0  0  0  0  0  0  0  0  0  0  0  0
   -1.4690   -1.0101    1.4594 C   0  0  0  0  0  0  0  0  0  0  0  0
   -0.9173    1.7021    1.9255 H   0  0  0  0  0  0  0  0  0  0  0  0
    0.7057    0.9995    1.8480 H   0  0  0  0  0  0  0  0  0  0  0  0
    0.3918    2.5346    1.0641 H   0  0  0  0  0  0  0  0  0  0  0  0
   -1.7214    1.3077   -1.7320 H   0  0  0  0  0  0  0  0  0  0  0  0
   -2.4740    1.6017   -0.1433 H   0  0  0  0  0  0  0  0  0  0  0  0
   -1.2426    2.7006   -0.7983 H   0  0  0  0  0  0  0  0  0  0  0  0
   -2.6412   -0.9120   -0.9904 H   0  0  0  0  0  0  0  0  0  0  0  0
   -1.1865   -1.0624   -1.9934 H   0  0  0  0  0  0  0  0  0  0  0  0
   -1.6378   -2.3739   -0.9240 H   0  0  0  0  0  0  0  0  0  0  0  0
   -2.4150   -0.4697    1.5643 H   0  0  0  0  0  0  0  0  0  0  0  0
   -1.6787   -2.0846    1.5225 H   0  0  0  0  0  0  0  0  0  0  0  0
   -0.8336   -0.7872    2.3230 H   0  0  0  0  0  0  0  0  0  0  0  0
  1  2  1  0  0  0  0
  2  3  1  0  0  0  0
  2  4  1  0  0  0  0
  3  5  1  0  0  0  0
  4  6  1  0  0  0  0
  5  6  1  0  0  0  0
  5  7  1  0  0  0  0
  5  8  1  0  0  0  0
  6  9  1  0  0  0  0
  6 10  1  0  0  0  0
  7 11  1  0  0  0  0
  7 12  1  0  0  0  0
  7 13  1  0  0  0  0
  8 14  1  0  0  0  0
  8 15  1  0  0  0  0
  8 16  1  0  0  0  0
  9 17  1  0  0  0  0
  9 18  1  0  0  0  0
  9 19  1  0  0  0  0
 10 20  1  0  0  0  0
 10 21  1  0  0  0  0
 10 22  1  0  0  0  0
M  END
> <PUBCHEM_COMPOUND_CID>
4571928

> <PUBCHEM_CONFORMER_RMSD>
0.4

> <PUBCHEM_CONFORMER_DIVERSEORDER>
1
2

> <PUBCHEM_MMFF94_PARTIAL_CHARGES>
6
1 -0.21
2 0.41
3 -0.38
4 -0.38
5 0.28
6 0.28

> <PUBCHEM_EFFECTIVE_ROTOR_COUNT>
1

> <PUBCHEM_PHARMACOPHORE_FEATURES>
3
3 5 7 8 hydrophobe
3 6 9 10 hydrophobe
5 2 3 4 5 6 rings

> <PUBCHEM_HEAVY_ATOM_COUNT>
10

> <PUBCHEM_ATOM_DEF_STEREO_COUNT>
0

> <PUBCHEM_ATOM_UDEF_STEREO_COUNT>
0

> <PUBCHEM_BOND_DEF_STEREO_COUNT>
0

> <PUBCHEM_BOND_UDEF_STEREO_COUNT>
0

> <PUBCHEM_ISOTOPIC_ATOM_COUNT>
0

> <PUBCHEM_COMPONENT_COUNT>
1

> <PUBCHEM_CACTVS_TAUTO_COUNT>
1

> <PUBCHEM_CONFORMER_ID>
0045C31800000001

> <PUBCHEM_MMFF94_ENERGY>
29.7171

> <PUBCHEM_FEATURE_SELFOVERLAP>
15.253

> <PUBCHEM_SHAPE_FINGERPRINT>
10702982 57 17024014974241793001
12423570 1 12789991851032957549
13024252 1 18187361008858159446
137420 1 15947638548714708175
16945 1 18115607962403395845
20653091 64 17399831639203164307
21040471 1 17826809035465834164
241688 4 15602862900823419179
29004967 10 17464280565526687649
369184 2 18201432563118430290
5084963 1 17613176077888360317

> <PUBCHEM_SHAPE_MULTIPOLES>
199.78
2.84
1.75
1.33
2.49
0.37
0.26
-0.34
0.12
-0.75
0.01
-0.36
0
0.26

> <PUBCHEM_SHAPE_SELFOVERLAP>
371.152

> <PUBCHEM_SHAPE_VOLUME>
131.4

> <PUBCHEM_COORDINATE_TYPE>
2
5
10

$$$$
