4571928
  -OEChem-07102113212D

 22 22  0     0  0  0  0  0  0999 V2000
    4.8479   -1.5784    0.0000 Cl  0  0  0  0  0  0  0  0  0  0  0  0
    4.2601   -0.7694    0.0000 P   0  0  0  0  0  0  0  0  0  0  0  0
    4.5691    0.1816    0.0000 O   0  0  0  0  0  0  0  0  0  0  0  0
    3.2601   -0.7694    0.0000 O   0  0  0  0  0  0  0  0  0  0  0  0
    3.7601    0.7694    0.0000 C   0  0  0  0  0  0  0  0  0  0  0  0
    2.9511    0.1816    0.0000 C   0  0  0  0  0  0  0  0  0  0  0  0
    4.3479    1.5784    0.0000 C   0  0  0  0  0  0  0  0  0  0  0  0
    3.1723    1.5784    0.0000 C   0  0  0  0  0  0  0  0  0  0  0  0
    2.0000   -0.1274    0.0000 C   0  0  0  0  0  0  0  0  0  0  0  0
    2.3633    0.9907    0.0000 C   0  0  0  0  0  0  0  0  0  0  0  0
    4.8494    1.2140    0.0000 H   0  0  0  0  0  0  0  0  0  0  0  0
    4.7123    2.0800    0.0000 H   0  0  0  0  0  0  0  0  0  0  0  0
    3.8463    1.9429    0.0000 H   0  0  0  0  0  0  0  0  0  0  0  0
    3.6739    1.9429    0.0000 H   0  0  0  0  0  0  0  0  0  0  0  0
    2.8079    2.0800    0.0000 H   0  0  0  0  0  0  0  0  0  0  0  0
    2.6707    1.2140    0.0000 H   0  0  0  0  0  0  0  0  0  0  0  0
    1.8084    0.4623    0.0000 H   0  0  0  0  0  0  0  0  0  0  0  0
    1.4103   -0.3190    0.0000 H   0  0  0  0  0  0  0  0  0  0  0  0
    2.1916   -0.7170    0.0000 H   0  0  0  0  0  0  0  0  0  0  0  0
    2.8649    1.3551    0.0000 H   0  0  0  0  0  0  0  0  0  0  0  0
    1.9988    1.4922    0.0000 H   0  0  0  0  0  0  0  0  0  0  0  0
    1.8617    0.6262    0.0000 H   0  0  0  0  0  0  0  0  0  0  0  0
  1  2  1  0  0  0  0
  2  3  1  0  0  0  0
  2  4  1  0  0  0  0
  3  5  1  0  0  0  0
  4  6  1  0  0  0  0
  5  6  1  0  0  0  0
  5  7  1  0  0  0  0
  5  8  1  0  0  0  0
  6  9  1  0  0  0  0
  6 10  1  0  0  0  0
  7 11  1  0  0  0  0
  7 12  1  0  0  0  0
  7 13  1  0  0  0  0
  8 14  1  0  0  0  0
  8 15  1  0  0  0  0
  8 16  1  0  0  0  0
  9 17  1  0  0  0  0
  9 18  1  0  0  0  0
  9 19  1  0  0  0  0
 10 20  1  0  0  0  0
 10 21  1  0  0  0  0
 10 22  1  0  0  0  0
M  END
> <PUBCHEM_COMPOUND_CID>
4571928

> <PUBCHEM_COMPOUND_CANONICALIZED>
1

> <PUBCHEM_CACTVS_COMPLEXITY>
131

> <PUBCHEM_CACTVS_HBOND_ACCEPTOR>
2

> <PUBCHEM_CACTVS_HBOND_DONOR>
0

> <PUBCHEM_CACTVS_ROTATABLE_BOND>
0

> <PUBCHEM_CACTVS_SUBSKEYS>
AAADccBgMAIEAAAAAAAAAAAAAAAAASAAAAAAAAAAAAAAAAAAAAAAGgAAACAADESAgAACAAAAARAAAAAAAAAAAAAAAAAAAAAAAAABAAAAAAAAAAAAAAAAAAAAAAAIgAAAAAAAAAAAAAAAAAAAAAAAAAAAAA==

> <PUBCHEM_IUPAC_OPENEYE_NAME>
2-chloro-4,4,5,5-tetramethyl-1,3,2-dioxaphospholane

> <PUBCHEM_IUPAC_CAS_NAME>
2-chloro-4,4,5,5-tetramethyl-1,3,2-dioxaphospholane

> <PUBCHEM_IUPAC_NAME_MARKUP>
2-chloro-4,4,5,5-tetramethyl-1,3,2-dioxaphospholane

> <PUBCHEM_IUPAC_NAME>
2-chloro-4,4,5,5-tetramethyl-1,3,2-dioxaphospholane

> <PUBCHEM_IUPAC_SYSTEMATIC_NAME>
2-chloranyl-4,4,5,5-tetramethyl-1,3,2-dioxaphospholane

> <PUBCHEM_IUPAC_TRADITIONAL_NAME>
2-chloro-4,4,5,5-tetramethyl-1,3,2-dioxaphospholane

> <PUBCHEM_IUPAC_INCHI>
InChI=1S/C6H12ClO2P/c1-5(2)6(3,4)9-10(7)8-5/h1-4H3

> <PUBCHEM_IUPAC_INCHIKEY>
WGPCXYWWBFBNSS-UHFFFAOYSA-N

> <PUBCHEM_XLOGP3_AA>
1.8

> <PUBCHEM_EXACT_MASS>
182.0263443

> <PUBCHEM_MOLECULAR_FORMULA>
C6H12ClO2P

> <PUBCHEM_MOLECULAR_WEIGHT>
182.58

> <PUBCHEM_OPENEYE_CAN_SMILES>
CC1(C(OP(O1)Cl)(C)C)C

> <PUBCHEM_OPENEYE_ISO_SMILES>
CC1(C(OP(O1)Cl)(C)C)C

> <PUBCHEM_CACTVS_TPSA>
18.5

> <PUBCHEM_MONOISOTOPIC_WEIGHT>
182.0263443

> <PUBCHEM_TOTAL_CHARGE>
0

> <PUBCHEM_HEAVY_ATOM_COUNT>
10

> <PUBCHEM_ATOM_DEF_STEREO_COUNT>
0

> <PUBCHEM_ATOM_UDEF_STEREO_COUNT>
0

> <PUBCHEM_BOND_DEF_STEREO_COUNT>
0

> <PUBCHEM_BOND_UDEF_STEREO_COUNT>
0

> <PUBCHEM_ISOTOPIC_ATOM_COUNT>
0

> <PUBCHEM_COMPONENT_COUNT>
1

> <PUBCHEM_CACTVS_TAUTO_COUNT>
-1

> <PUBCHEM_COORDINATE_TYPE>
1
5
255

$$$$
