  15
    -0.071294 !GC
 O          0.0000000000        0.0000000000        0.0000000000
 C          1.3401127865        0.0000000000        0.0000000000
 C          2.1258448330        1.1566792647        0.0000000000
 O          1.3686212129        2.3324961699        0.0003984729
 C          3.5037775266        1.0721392937       -0.0002306065
 H          4.1136344571        1.9695866086       -0.0002264967
 C          4.1317525940       -0.1597455845       -0.0006009102
 H          5.2004217026       -0.2569763700       -0.0012315045
 C          3.3619605905       -1.3177145633       -0.0006031966
 C          1.9766841823       -1.2345386733       -0.0003607492
 H          1.3300487256       -2.0997746583       -0.0026260299
 O          4.0827765320       -2.4699479977       -0.0019223360
 H          5.0250463253       -2.2625712351       -0.0025602938
 H          0.4327038114        2.1273105217        0.0006780926
 H         -0.2679738720       -0.9338392552        0.0001361175
  15
    -0.069726 !GC
 O          0.0000000000        0.0000000000        0.0000000000
 C          1.3554645015        0.0000000000        0.0000000000
 C          2.0670053687        1.2083288410        0.0000000000
 O          1.3208217077        2.3689921541       -0.0002208739
 C          3.4468780346        1.1922475513        0.0001919157
 H          3.9951573310        2.1242744446        0.0006179447
 C          4.1354333097       -0.0117224118        0.0004210959
 H          5.2162232414       -0.0112145187        0.0005609210
 C          3.4348579694       -1.2080522867        0.0007230649
 C          2.0440625779       -1.1981196064        0.0004063047
 H          1.5000997776       -2.1259903081        0.0014638131
 O          4.0579434764       -2.4191500586        0.0011057955
 H          5.0127265711       -2.2815489038        0.0016384946
 H          1.9181000419        3.1237907415        0.0000195383
 H         -0.2875516954        0.9238642764        0.0001306180
  15
    -0.056075 !GC
 O          0.0000000000        0.0000000000        0.0000000000
 C          1.3606863733        0.0000000000        0.0000000000
 C          1.9851099778        1.2536821950        0.0000000000
 O          1.1621213605        2.3387759006        0.0129195894
 C          3.3655570628        1.3242499819       -0.0380994720
 H          3.8502908060        2.2900701761       -0.0588199840
 C          4.1329182543        0.1707829407       -0.0434992987
 H          5.2082039313        0.2208334865       -0.0720316578
 C          3.5169158943       -1.0702943734        0.0030063087
 C          2.1253452791       -1.1519950822        0.0184325335
 H          1.6375578405       -2.1187239421        0.0360801067
 O          4.2972516616       -2.1894126278        0.0169674271
 H          3.7330260722       -2.9707121245        0.0487623082
 H          1.5949361898        3.0286854907       -0.5022933352
 H         -0.2875186488       -0.8355652677        0.3851941907
  15
    -0.050131 !GC
 O          0.0000000000        0.0000000000        0.0000000000
 C          1.3372567737        0.0000000000        0.0000000000
 C          2.1187169271        1.1658812518        0.0000000000
 O          1.3535082154        2.3362117742        0.0000550173
 C          3.4926664588        1.0907810862       -0.0000269757
 H          4.1022274160        1.9887310491        0.0002665510
 C          4.1244691341       -0.1459759804       -0.0000218051
 H          5.2041650965       -0.1961788126        0.0000342183
 C          3.3620087282       -1.3043082512        0.0002195451
 C          1.9737623265       -1.2285955073        0.0000979427
 H          1.3732272985       -2.1168855157        0.0000737106
 O          3.9281867296       -2.5408726946        0.0001266678
 H          4.8889567915       -2.4508653861        0.0004474298
 H          0.4188525728        2.1245016719       -0.0001947820
 H         -0.2649921940       -0.9352267369        0.0000147981
  15
    -0.047877 !GC
 O          0.0000000000        0.0000000000        0.0000000000
 C          1.3733642589        0.0000000000        0.0000000000
 C          2.0511835747        1.2205008065        0.0000000000
 O          1.3201914813        2.3883901793       -0.0002449943
 C          3.4340330425        1.2405306927       -0.0005005274
 H          3.9422982588        2.1902826671       -0.0031544829
 C          4.1393823615        0.0521384389       -0.0012749016
 H          5.2164237194        0.0489784125       -0.0045633107
 C          3.4655503768       -1.1641936068       -0.0009619418
 C          2.0759949016       -1.1907530206       -0.0002994079
 H          1.5286009952       -2.1213773451       -0.0041627954
 O          4.2001840483       -2.3107142972       -0.0038848762
 H          3.6077331762       -3.0717906979       -0.0043354370
 H          0.3870739859        2.1424670567       -0.0004762997
 H         -0.2877273367        0.9215878828        0.0003882518
  15
    -0.046161 !GC
 O          0.0000000000        0.0000000000        0.0000000000
 C          1.3456961229        0.0000000000        0.0000000000
 C          2.0044547198        1.2374467707        0.0000000000
 O          1.1693455652        2.3160970465        0.0131901171
 C          3.3875991875        1.2699604546       -0.0375851050
 H          3.9087743937        2.2210258809       -0.0592219600
 C          4.1394941105        0.1079230593       -0.0427619546
 H          5.2120133878        0.1188463773       -0.0703025242
 C          3.4949328154       -1.1184309491        0.0037015121
 C          2.1026154270       -1.1632029885        0.0193442100
 H          1.5733856294       -2.1131065243        0.0373537699
 O          4.3237446886       -2.2012749532        0.0150685444
 H          5.2417937306       -1.9077360430       -0.0108080102
 H          0.3879299158        2.0951613142        0.5275000255
 H         -0.2970590834       -0.8338692359        0.3851622788
  15
    -0.031143 !GC
 O          0.0000000000        0.0000000000        0.0000000000
 C          1.3583205143        0.0000000000        0.0000000000
 C          2.0746557232        1.1993954310        0.0000000000
 O          1.3363909997        2.3654146333        0.0001084397
 C          3.4589127152        1.1740272772       -0.0000127850
 H          4.0075184599        2.1055725379        0.0001216533
 C          4.1434152229       -0.0252561971       -0.0001566374
 H          5.2153970644       -0.0722389390       -0.0006976274
 C          3.4355000823       -1.2216074376       -0.0000968132
 C          2.0472467911       -1.2040523808       -0.0000395102
 H          1.4556643464       -2.1117950058       -0.0012034683
 O          4.2094190377       -2.3412543543       -0.0009114524
 H          5.1398998135       -2.0873889341       -0.0013753717
 H          1.9387597347        3.1159162322       -0.0000448701
 H         -0.2904827184        0.9224053216        0.0000105893
  15
    -0.030110 !GC
 O          0.0000000000        0.0000000000        0.0000000000
 C          1.3431444219        0.0000000000        0.0000000000
 C          2.0397560325        1.2164135502        0.0000000000
 O          1.1982768731        2.3098797923        0.0122396371
 C          3.4179400383        1.2273727898       -0.0385252432
 H          3.9660638693        2.1631536683       -0.0598992177
 C          4.1308542973        0.0375329250       -0.0447891032
 H          5.2072458076        0.0374175355       -0.0735464150
 C          3.4510178366       -1.1699933883        0.0004707432
 C          2.0575368537       -1.1856388323        0.0173498761
 H          1.5101442500       -2.1161417651        0.0329063886
 O          4.1779007702       -2.3224224438        0.0136519769
 H          3.5787462556       -3.0777886911        0.0390883977
 H          0.4308809093        2.0953929929        0.5470187439
 H         -0.2653353171        0.8547373510       -0.3697198573
  15
    -0.029984 !GC
 O          0.0000000000        0.0000000000        0.0000000000
 C          1.3551565311        0.0000000000        0.0000000000
 C          2.1036345215        1.1800153030        0.0000000000
 O          1.3537491124        2.3578099639        0.0000238899
 C          3.4821042737        1.1407616910       -0.0007116256
 H          4.0527448038        2.0590713698       -0.0034728583
 C          4.1314435510       -0.0812138085       -0.0017145924
 H          5.2072227188       -0.1349044636       -0.0050887603
 C          3.3946503078       -1.2609259102       -0.0014637488
 C          2.0060206674       -1.2218382932       -0.0006241683
 H          1.4018923054       -2.1126549377       -0.0055912517
 O          4.0750493600       -2.4381714574       -0.0048855353
 H          3.4510561831       -3.1740403866       -0.0054011809
 H          1.9548694714        3.1073166317        0.0001755048
 H         -0.2652298831       -0.9329545680       -0.0002463750
  15
    -0.028392 !GC
 O          0.0000000000        0.0000000000        0.0000000000
 C          1.3424786455        0.0000000000        0.0000000000
 C          2.0395358094        1.2162815986        0.0000000000
 O          1.1969432785        2.3096167853        0.0137769421
 C          3.4177786499        1.2274861397       -0.0378751388
 H          3.9658857880        2.1634014651       -0.0587600702
 C          4.1307848263        0.0375146565       -0.0436650718
 H          5.2073128620        0.0370675430       -0.0719776005
 C          3.4504471897       -1.1699546887        0.0023950760
 C          2.0570779529       -1.1857767405        0.0186653907
 H          1.5099199883       -2.1163607515        0.0346608162
 O          4.1776766285       -2.3219751314        0.0156973078
 H          3.5810412230       -3.0792485285        0.0471406217
 H          0.4173261327        2.0887040180        0.5276572778
 H         -0.2650610815        0.8458217998       -0.3900837336
  15
    -0.028175 !GC
 O          0.0000000000        0.0000000000        0.0000000000
 C          1.3551030368        0.0000000000        0.0000000000
 C          2.1085208481        1.1764521794        0.0000000000
 O          1.3642176270        2.3578191808        0.0003708056
 C          3.4869981516        1.1299662269       -0.0007802625
 H          4.0619597412        2.0455759692       -0.0001334884
 C          4.1312220961       -0.0949900277       -0.0019693922
 H          5.2066104406       -0.1535582129       -0.0034118956
 C          3.3884068794       -1.2705882265       -0.0019416136
 C          2.0005121930       -1.2241474168       -0.0011279302
 H          1.3924655956       -2.1113917053       -0.0039027509
 O          4.0576849837       -2.4543162317       -0.0036699873
 H          3.4209753922       -3.1793129834       -0.0032296302
 H          1.9688808341        3.1042907895       -0.0000040919
 H         -0.2583281848       -0.9350901680       -0.0005570525
  15
    -0.028027 !GC
 O          0.0000000000        0.0000000000        0.0000000000
 C          1.3435655629        0.0000000000        0.0000000000
 C          1.9971229264        1.2460135837        0.0000000000
 O          1.1567432344        2.3193859912        0.0121093970
 C          3.3756081024        1.2870468635       -0.0383323790
 H          3.8964721926        2.2386611485       -0.0572446761
 C          4.1314639925        0.1204573139       -0.0440752149
 H          5.2101694096        0.1789370634       -0.0703021647
 C          3.4940649405       -1.1054020418        0.0012631097
 C          2.0996499905       -1.1574919792        0.0173558998
 H          1.6191176660       -2.1242142654        0.0375911850
 O          4.1761800048       -2.2872851790        0.0205046546
 H          5.1236102664       -2.1087678963        0.0036179531
 H          0.3877626633        2.1032276950        0.5470674887
 H         -0.2944294445       -0.8442377750        0.3653771648
  15
    -0.018480 !GC
 O          0.0000000000        0.0000000000        0.0000000000
 C          1.3438500666        0.0000000000        0.0000000000
 C          2.0456682552        1.2103042936        0.0000000000
 O          1.2089165239        2.3083541587        0.0137354407
 C          3.4262530346        1.2134690350       -0.0378783167
 H          3.9767643279        2.1477518585       -0.0586761185
 C          4.1348352369        0.0242847858       -0.0437236221
 H          5.2070701856       -0.0020023847       -0.0719381582
 C          3.4480612669       -1.1814265675        0.0024081254
 C          2.0559922538       -1.1898810464        0.0187998019
 H          1.4829043403       -2.1088976671        0.0344195660
 O          4.2428638210       -2.2874531248        0.0125468987
 H          5.1683252653       -2.0170126026       -0.0141208813
 H          0.4288872044        2.0901733801        0.5279851598
 H         -0.2630989919        0.8461243391       -0.3902510283
  15
    -0.013037 !GC
 O          0.0000000000        0.0000000000        0.0000000000
 C          1.3565279521        0.0000000000        0.0000000000
 C          2.1094749818        1.1738428280        0.0000000000
 O          1.3659024099        2.3558563770       -0.0000170981
 C          3.4899901032        1.1264662844       -0.0006366852
 H          4.0629811358        2.0430854284       -0.0033629461
 C          4.1349611380       -0.0944911538       -0.0015846643
 H          5.2051731801       -0.1737828947       -0.0051303373
 C          3.3917984539       -1.2721461750       -0.0013372248
 C          2.0047220517       -1.2258084333       -0.0005543016
 H          1.3755347880       -2.1034551217       -0.0058008682
 O          4.1414095084       -2.4060996130       -0.0051577817
 H          5.0778812738       -2.1741675396       -0.0064221932
 H          1.9723860602        3.1009109547       -0.0000307432
 H         -0.2632647435       -0.9332996949       -0.0002210993
  15
    -0.011432 !GC
 O          0.0000000000        0.0000000000        0.0000000000
 C          1.3748487244        0.0000000000        0.0000000000
 C          2.0528552375        1.2176076404        0.0000000000
 O          1.3235684127        2.3866411603        0.0001170924
 C          3.4379444040        1.2365133453       -0.0007841369
 H          3.9441044143        2.1873222061       -0.0037691425
 C          4.1435712521        0.0519337560       -0.0019827505
 H          5.2165223791        0.0271262125       -0.0057087955
 C          3.4688609113       -1.1663097269       -0.0019086427
 C          2.0803674502       -1.1925944762       -0.0008133831
 H          1.5109959170       -2.1151007087       -0.0067564280
 O          4.2811362640       -2.2585764038       -0.0058658555
 H          5.2048554590       -1.9815012181       -0.0073901943
 H          0.3897333579        2.1438367170        0.0002869888
 H         -0.2925943590        0.9197255311        0.0002929576
  15
    -0.006444 !GC
 O          0.0000000000        0.0000000000        0.0000000000
 C          1.3386281948        0.0000000000        0.0000000000
 C          2.1244261933        1.1595804257        0.0000000000
 O          1.3654880398        2.3342120127        0.0000132784
 C          3.5002090889        1.0763243161        0.0000492887
 H          4.1120593565        1.9724840372        0.0003822661
 C          4.1276495678       -0.1593498340        0.0001084595
 H          5.2018608890       -0.2352621799       -0.0000509509
 C          3.3588867318       -1.3154842538        0.0003468299
 C          1.9724202942       -1.2325337883        0.0001705459
 H          1.3468940725       -2.1077520772       -0.0000712440
 O          3.9980759280       -2.5154867670       -0.0000306726
 H          3.3421131587       -3.2231561350       -0.0002457272
 H          0.4301626973        2.1259042291       -0.0000913534
 H         -0.2630225760       -0.9355713174        0.0000402322
  15
    -0.006145 !GC
 O          0.0000000000        0.0000000000        0.0000000000
 C          1.3417730008        0.0000000000        0.0000000000
 C          2.0335794978        1.2223718271        0.0000000000
 O          1.1862851937        2.3110983393        0.0122810883
 C          3.4093762649        1.2413437374       -0.0385204409
 H          3.9550914765        2.1787509358       -0.0599821836
 C          4.1267222949        0.0507309503       -0.0447280697
 H          5.2067744955        0.0766453279       -0.0735635422
 C          3.4533234183       -1.1585168855        0.0004625722
 C          2.0586038129       -1.1815310085        0.0172204521
 H          1.5373525170       -2.1228835820        0.0331096355
 O          4.1099448473       -2.3527919637        0.0166834561
 H          5.0615805123       -2.1966273922       -0.0009474414
 H          0.4192636357        2.0939366959        0.5466831951
 H         -0.2672968173        0.8544265743       -0.3695579827
  15
    -0.005353 !GC
 O          0.0000000000        0.0000000000        0.0000000000
 C          1.3621708388        0.0000000000        0.0000000000
 C          1.9869156809        1.2507980739        0.0000000000
 O          1.1655077184        2.3371679354        0.0132842569
 C          3.3696334483        1.3203290214       -0.0384385676
 H          3.8522164657        2.2871553152       -0.0594120244
 C          4.1370741697        0.1706848692       -0.0443582963
 H          5.2093409166        0.1989180386       -0.0730215528
 C          3.5202833548       -1.0723514580        0.0019531611
 C          2.1298112652       -1.1536891522        0.0179627557
 H          1.6194987487       -2.1137420147        0.0335057538
 O          4.3761995517       -2.1341893844        0.0118543042
 H          5.2870437290       -1.8192087139       -0.0152575322
 H          1.5977266269        3.0274469606       -0.5017551991
 H         -0.2923774608       -0.8338355060        0.3845006715
  15
    -0.003253 !GC
 O          0.0000000000        0.0000000000        0.0000000000
 C          1.3537316158        0.0000000000        0.0000000000
 C          2.1026654198        1.1826280975        0.0000000000
 O          1.3520530075        2.3597723118        0.0004118012
 C          3.4790921453        1.1442518071       -0.0008547889
 H          4.0517064249        2.0615571727       -0.0002490440
 C          4.1276893580       -0.0817268407       -0.0020993430
 H          5.2081469948       -0.1144981836       -0.0033249768
 C          3.3912347860       -1.2593810207       -0.0020674976
 C          2.0018081892       -1.2201844439       -0.0011958438
 H          1.4190016990       -2.1200029644       -0.0037435685
 O          3.9884334596       -2.4815022272       -0.0034769677
 H          4.9467930533       -2.3689729829       -0.0044956986
 H          1.9513426038        3.1106829168        0.0002029162
 H         -0.2602959424       -0.9347554287       -0.0005822595
  15
    -0.002226 !GC
 O          0.0000000000        0.0000000000        0.0000000000
 C          1.3719393435        0.0000000000        0.0000000000
 C          2.0500622605        1.2231352699        0.0000000000
 O          1.3183488886        2.3903866203        0.0001251450
 C          3.4308329014        1.2439562878       -0.0006457105
 H          3.9411250524        2.1928371943        0.0000978099
 C          4.1356328271        0.0515320085       -0.0016599718
 H          5.2163658803        0.0694866684       -0.0028035686
 C          3.4620315373       -1.1627273460       -0.0015655433
 C          2.0717148308       -1.1892213799       -0.0008570148
 H          1.5462397828       -2.1274937913       -0.0023527394
 O          4.1154881322       -2.3579542226       -0.0024940596
 H          5.0667458917       -2.1979866908       -0.0033027808
 H          0.3850265147        2.1454290912        0.0004403598
 H         -0.2828642080        0.9235074559        0.0007204335
  15
    -0.000257 !GC
 O          0.0000000000        0.0000000000        0.0000000000
 C          1.3599807286        0.0000000000        0.0000000000
 C          1.9788139240        1.2594530259        0.0000000000
 O          1.1511580274        2.3400260829        0.0114869300
 C          3.3564822326        1.3376981060       -0.0387531520
 H          3.8387416666        2.3048480928       -0.0600517617
 C          4.1282052126        0.1837928083       -0.0445639263
 H          5.2057741628        0.2603392551       -0.0736339479
 C          3.5192236681       -1.0586964637        0.0010805482
 C          2.1266784858       -1.1476587991        0.0170245415
 H          1.6655128948       -2.1235106659        0.0344800185
 O          4.2308606380       -2.2233212905        0.0179798251
 H          5.1732342615       -2.0201189376        0.0002511676
 H          1.5708854041        3.0219807931       -0.5250810486
 H         -0.2897303311       -0.8440065114        0.3648936765
  15
    -0.000010 !GC
 O          0.0000000000        0.0000000000        0.0000000000
 C          1.3751568210        0.0000000000        0.0000000000
 C          2.0147766948        1.2437059165        0.0000000000
 O          1.2891021565        2.3956178632       -0.0001190518
 C          3.4002895983        1.2859271555        0.0001310939
 H          3.8833092660        2.2488854010        0.0003569396
 C          4.1440765826        0.1211635028        0.0001562432
 H          5.2205884451        0.1504741583       -0.0000896181
 C          3.5064494520       -1.1117974593        0.0002792572
 C          2.1173455723       -1.1671902880        0.0001960111
 H          1.6101121346       -2.1243889735        0.0003554103
 O          4.2656319308       -2.2443317088        0.0002473432
 H          3.6870023320       -3.0156243612        0.0002471861
 H          0.3541294410        2.1502636556       -0.0001538599
 H         -0.3145112998       -0.9099844705       -0.0001782014
