  15
        -28.10094247
 O          1.6070132202        1.7719344885        0.0000084334
 C          0.6939664983        0.7681158894       -0.0000067915
 C          1.1068453426       -0.5694443262       -0.0000089404
 O          2.4672680313       -0.8004649589        0.0000102893
 C          0.1641106977       -1.5802385148       -0.0000081424
 H          0.4868994669       -2.6122044422        0.0000094471
 C         -1.1872615872       -1.2823315459        0.0000049334
 H         -1.9275010132       -2.0646233798       -0.0000036079
 C         -1.6016442523        0.0428504633       -0.0000093796
 C         -0.6590124434        1.0640260431       -0.0000180626
 H         -0.9587152766        2.1015774431       -0.0000241307
 O         -2.9377723199        0.3044139870        0.0000146465
 H         -3.0792730010        1.2585173912        0.0000240442
 H          2.6240577846       -1.7500528027        0.0000018669
 H          2.4858631796        1.3678792952        0.0000154061
  15
        -28.10069824
 O          1.6349123373        1.7534205825       -0.0000341313
 C          0.6769002996        0.7688540142        0.0001260176
 C          1.1298532405       -0.5572812961       -0.0000109241
 O          2.4628007117       -0.8333018307       -0.0000545241
 C          0.2014390986       -1.5834320730       -0.0000360258
 H          0.5576584873       -2.6005422988       -0.0006898778
 C         -1.1556529735       -1.3068766172        0.0001931219
 H         -1.8688322426       -2.1192340831        0.0002091760
 C         -1.6002308084        0.0063514141        0.0001449915
 C         -0.6758493948        1.0464062485        0.0001483468
 H         -1.0338908047        2.0653203983       -0.0008553901
 O         -2.9245771201        0.3322889345       -0.0002283158
 H         -3.4531299366       -0.4742776778       -0.0005594784
 H          2.9359564708        0.0097297361        0.0002549240
 H          1.2037007482        2.6144289845       -0.0000668487
  15
        -28.10004855
 O          1.5945842183        1.7833722032        0.0001348304
 C          0.6860137688        0.7773436892       -0.0002181569
 C          1.1112468731       -0.5592395016       -0.0000490876
 O          2.4735045565       -0.7779138481        0.0000406030
 C          0.1795880951       -1.5771610336       -0.0000785090
 H          0.5088439783       -2.6072837108       -0.0002356296
 C         -1.1764060186       -1.2867618406        0.0000105901
 H         -1.8973842039       -2.0921402747        0.0001160763
 C         -1.6011316548        0.0333874575       -0.0001428649
 C         -0.6666693797        1.0638423108       -0.0001932429
 H         -0.9958824813        2.0888190324        0.0022531242
 O         -2.9207261815        0.3701243422        0.0001455162
 H         -3.4592592575       -0.4299045877        0.0002435419
 H          2.6405345946       -1.7256088834        0.0002301007
 H          2.4758570854        1.3841616379        0.0002971827
  15
        -28.09939361
 O          1.6518891872        1.7393102785        0.0002749868
 C          0.6847884914        0.7615039849       -0.0005666575
 C          1.1246143726       -0.5664443428       -0.0001225635
 O          2.4549314102       -0.8552282494        0.0003373353
 C          0.1855052972       -1.5858850769       -0.0002933795
 H          0.5355124756       -2.6049322508        0.0003650355
 C         -1.1666125875       -1.3011788281       -0.0001900208
 H         -1.8997867930       -2.0902009312        0.0008648887
 C         -1.6013245713        0.0175380325       -0.0003897798
 C         -0.6689783503        1.0490859969       -0.0006753457
 H         -0.9980547253        2.0820800943        0.0044740626
 O         -2.9426970163        0.2613134806        0.0006652404
 H         -3.1033967768        1.2119844628        0.0002422033
 H          2.9376900103       -0.0177927014        0.0001460084
 H          1.2326073523        2.6058022934        0.0002938362
  15
        -28.09433797
 O          1.6245624595        1.7659129300        0.0000031754
 C          0.6935532388        0.7781252076       -0.0000686864
 C          1.1337647603       -0.5562581726       -0.0000814518
 O          2.4756786291       -0.7971843554        0.0000540547
 C          0.1945595629       -1.5714870645       -0.0000231417
 H          0.5290977972       -2.6000308822        0.0001584414
 C         -1.1646955498       -1.2964831270       -0.0000042545
 H         -1.8785332462       -2.1080591906        0.0001745437
 C         -1.5983374780        0.0182346339        0.0000493681
 C         -0.6630354344        1.0484764062        0.0000097356
 H         -1.0170116273        2.0688562402        0.0003568078
 O         -2.9194627129        0.3561372608       -0.0000299459
 H         -3.4561114987       -0.4449933999       -0.0001271345
 H          2.6293292077       -1.7491856811        0.0003591452
 H          1.1828083195        2.6235574504        0.0000563377
  15
        -28.09358241
 O          1.6415391896        1.7512711138       -0.0000202626
 C          0.7012395519        0.7703516906        0.0000462410
 C          1.1285455990       -0.5655791725        0.0000389631
 O          2.4683604617       -0.8185850309       -0.0000507415
 C          0.1788332883       -1.5738863444        0.0000273207
 H          0.5068304728       -2.6043331914       -0.0002054595
 C         -1.1754823687       -1.2906449316        0.0000206134
 H         -1.9089254010       -2.0792141091       -0.0002407058
 C         -1.5994617205        0.0292254972        0.0000623763
 C         -0.6561447975        1.0509442819        0.0000634868
 H         -0.9810987822        2.0854121031        0.0000269596
 O         -2.9382380388        0.2857044648       -0.0000819604
 H         -3.0883135528        1.2381358223       -0.0001290008
 H          2.6117701108       -1.7720785725       -0.0000638081
 H          1.2118509050        2.6146887380       -0.0000462144
  15
        -28.09262665
 O          1.5880696541        1.7993088877        0.0223395607
 C          0.6891920381        0.7645524744        0.0083516414
 C          1.1144412409       -0.5669248462       -0.0087510994
 O          2.4576168991       -0.8831091386       -0.0230986630
 C          0.1727073827       -1.5829859180        0.0163958865
 H          0.5192918921       -2.6035121647        0.0242675082
 C         -1.1769236206       -1.2923830357        0.0255383082
 H         -1.9140222672       -2.0775382606        0.0431884415
 C         -1.6018338267        0.0312123817       -0.0030219415
 C         -0.6653036349        1.0560733045       -0.0063562129
 H         -0.9681667211        2.0929344049       -0.0096028679
 O         -2.9385580929        0.2838598693       -0.0146152248
 H         -3.0890248647        1.2365777720       -0.0285418913
 H          2.9384640846       -0.2320962602       -0.5491959576
 H          2.4291332876        1.4867070674        0.3807455056
  15
        -28.09223537
 O          1.5756833372        1.8110288048        0.0219931549
 C          0.6810396585        0.7735071627        0.0087385874
 C          1.1191109355       -0.5567108756       -0.0084762355
 O          2.4641149435       -0.8615108091       -0.0251494814
 C          0.1884204891       -1.5797510865        0.0165358614
 H          0.5413165914       -2.5982658499        0.0237384093
 C         -1.1656509440       -1.2967782720        0.0255508467
 H         -1.8830909037       -2.1052252367        0.0438449933
 C         -1.6012940661        0.0213533620       -0.0037692590
 C         -0.6728844910        1.0555668680       -0.0067179670
 H         -1.0050847119        2.0797956672       -0.0101168426
 O         -2.9220071822        0.3496027097       -0.0158929137
 H         -3.4557351126       -0.4537086428       -0.0021493435
 H          2.9404852538       -0.1921592217       -0.5322082758
 H          2.4123693322        1.5091312476        0.3995972646
