**DIRAC
.TITLE
  F2
.WAVE F ! Activate integral and wave functions module
#.ANALYZE
.OPTIMIZE
*OPTIMIZE
! force numerical gradient
.NUMGRA
.PRINT
3
.MAX IT
35
#.NOAUX
#.CARTES
.NOBREA
**MOLECULE
*SYMMETRY
!.NOSYM
*BASIS
.DEFAULT 
dyall.v2z    
**GENERAL
.DIRECT
1 1 1
.PCMOUT
**INTEGRALS
.PRINT
1
.NUCMOD ! 1-Point nucleus, 2-gaussian
2
*READIN
.UNCONTRACTED
**HAMILTONIAN
.X2C
.NOAMFI
.PRINT
1
**WAVE FUNCTIONS ! What method (DHF,MP2,CC..)
.SCF
.RELCCSD
*SCF
.CLOSED SHELL
10 8 
.EVCCNV ! Energy convergence...
1.0D-8  1.0D-6
# read starting MOs
.MAXITR
25
.PRINT
1
#################################################
**ANALYZE
.MULPOP
*MULPOP
.VECPOP
all   
all   
**MOLTRA
# 46 correl.el
.ACTIVE
energy -12.00   100.0  0.01
**RELCC
.ENERGY
.PRINT
1
#.NELEC
#24 24
*CCENER
.MAXIT # maximum number of iterations for (0,0) sector
35
.NTOL
7
*END OF
