16078
  Marvin  12300703363D          

 53 55  0  0  1  0            999 V2000
   -0.0846    1.7136   -1.3352 O   0  0  0  0  0  0  0  0  0  0  0  0
    1.5846   -2.5765   -0.3298 O   0  0  0  0  0  0  0  0  0  0  0  0
    2.2975    1.8127   -1.0279 C   0  0  2  0  0  0  0  0  0  0  0  0
    2.2760    0.2416   -1.0454 C   0  0  2  0  0  0  0  0  0  0  0  0
    0.9984    2.4582   -1.6489 C   0  0  2  0  0  0  0  0  0  0  0  0
    3.6716    2.2869   -1.5958 C   0  0  0  0  0  0  0  0  0  0  0  0
    0.9233   -0.3434   -0.7623 C   0  0  0  0  0  0  0  0  0  0  0  0
    4.8852    1.6000   -0.9019 C   0  0  0  0  0  0  0  0  0  0  0  0
    3.4249   -0.2647   -0.2846 C   0  0  0  0  0  0  0  0  0  0  0  0
    4.6476    0.3020   -0.2668 C   0  0  0  0  0  0  0  0  0  0  0  0
   -0.2024    0.5068   -0.9311 C   0  0  0  0  0  0  0  0  0  0  0  0
    0.7247    3.8786   -1.0621 C   0  0  0  0  0  0  0  0  0  0  0  0
    1.0196    2.5657   -3.2046 C   0  0  0  0  0  0  0  0  0  0  0  0
    0.6859   -1.7005   -0.4074 C   0  0  0  0  0  0  0  0  0  0  0  0
   -1.5061    0.0315   -0.6889 C   0  0  0  0  0  0  0  0  0  0  0  0
    5.7660   -0.3484    0.4107 C   0  0  0  0  0  0  0  0  0  0  0  0
   -1.7219   -1.3007   -0.2763 C   0  0  0  0  0  0  0  0  0  0  0  0
   -0.6135   -2.1555   -0.1310 C   0  0  0  0  0  0  0  0  0  0  0  0
   -3.0759   -1.8108    0.0350 C   0  0  0  0  0  0  0  0  0  0  0  0
   -3.4089   -1.5711    1.5274 C   0  0  0  0  0  0  0  0  0  0  0  0
   -4.8100   -2.1002    1.9047 C   0  0  0  0  0  0  0  0  0  0  0  0
   -5.1840   -1.8491    3.3843 C   0  0  0  0  0  0  0  0  0  0  0  0
   -6.5924   -2.3752    3.7265 C   0  0  0  0  0  0  0  0  0  0  0  0
    2.2877    2.0921    0.0341 H   0  0  0  0  0  0  0  0  0  0  0  0
    2.4577   -0.0844   -2.0746 H   0  0  0  0  0  0  0  0  0  0  0  0
    3.7646    3.3731   -1.5197 H   0  0  0  0  0  0  0  0  0  0  0  0
    3.7192    2.0398   -2.6595 H   0  0  0  0  0  0  0  0  0  0  0  0
    5.6935    1.5011   -1.6323 H   0  0  0  0  0  0  0  0  0  0  0  0
    5.2412    2.2795   -0.1227 H   0  0  0  0  0  0  0  0  0  0  0  0
    3.3177   -1.0935    0.2420 H   0  0  0  0  0  0  0  0  0  0  0  0
    0.5822    3.8436    0.0203 H   0  0  0  0  0  0  0  0  0  0  0  0
   -0.1758    4.3296   -1.4869 H   0  0  0  0  0  0  0  0  0  0  0  0
    1.5556    4.5574   -1.2646 H   0  0  0  0  0  0  0  0  0  0  0  0
    1.1839    1.5901   -3.6650 H   0  0  0  0  0  0  0  0  0  0  0  0
    0.0800    2.9613   -3.5981 H   0  0  0  0  0  0  0  0  0  0  0  0
    1.8096    3.2374   -3.5474 H   0  0  0  0  0  0  0  0  0  0  0  0
   -2.3052    0.6600   -0.8117 H   0  0  0  0  0  0  0  0  0  0  0  0
    6.5634   -0.5450   -0.3081 H   0  0  0  0  0  0  0  0  0  0  0  0
    6.1548    0.2906    1.2045 H   0  0  0  0  0  0  0  0  0  0  0  0
    5.5194   -1.3107    0.8683 H   0  0  0  0  0  0  0  0  0  0  0  0
   -0.7545   -3.1235    0.1780 H   0  0  0  0  0  0  0  0  0  0  0  0
   -3.1438   -2.8811   -0.1862 H   0  0  0  0  0  0  0  0  0  0  0  0
   -3.8203   -1.3307   -0.6054 H   0  0  0  0  0  0  0  0  0  0  0  0
   -3.3608   -0.4989    1.7414 H   0  0  0  0  0  0  0  0  0  0  0  0
   -2.6628   -2.0684    2.1562 H   0  0  0  0  0  0  0  0  0  0  0  0
    1.4023   -3.4032   -0.0858 H   0  0  0  0  0  0  0  0  0  0  0  0
   -5.5508   -1.6154    1.2624 H   0  0  0  0  0  0  0  0  0  0  0  0
   -4.8452   -3.1754    1.7050 H   0  0  0  0  0  0  0  0  0  0  0  0
   -5.1477   -0.7763    3.5939 H   0  0  0  0  0  0  0  0  0  0  0  0
   -4.4548   -2.3391    4.0356 H   0  0  0  0  0  0  0  0  0  0  0  0
   -6.8223   -2.1776    4.7742 H   0  0  0  0  0  0  0  0  0  0  0  0
   -7.3449   -1.8817    3.1079 H   0  0  0  0  0  0  0  0  0  0  0  0
   -6.6498   -3.4521    3.5559 H   0  0  0  0  0  0  0  0  0  0  0  0
  1  5  1  0  0  0  0
  1 11  1  0  0  0  0
  2 14  1  0  0  0  0
  2 46  1  0  0  0  0
  3  4  1  0  0  0  0
  3  5  1  0  0  0  0
  3  6  1  0  0  0  0
  3 24  1  0  0  0  0
  4  7  1  0  0  0  0
  4  9  1  0  0  0  0
  4 25  1  0  0  0  0
  5 12  1  0  0  0  0
  5 13  1  0  0  0  0
  6  8  1  0  0  0  0
  6 26  1  0  0  0  0
  6 27  1  0  0  0  0
  7 11  1  0  0  0  0
  7 14  2  0  0  0  0
  8 10  1  0  0  0  0
  8 28  1  0  0  0  0
  8 29  1  0  0  0  0
  9 10  2  0  0  0  0
  9 30  1  0  0  0  0
 10 16  1  0  0  0  0
 11 15  2  0  0  0  0
 12 31  1  0  0  0  0
 12 32  1  0  0  0  0
 12 33  1  0  0  0  0
 13 34  1  0  0  0  0
 13 35  1  0  0  0  0
 13 36  1  0  0  0  0
 14 18  1  0  0  0  0
 15 17  1  0  0  0  0
 15 37  1  0  0  0  0
 16 38  1  0  0  0  0
 16 39  1  0  0  0  0
 16 40  1  0  0  0  0
 17 18  2  0  0  0  0
 17 19  1  0  0  0  0
 18 41  1  0  0  0  0
 19 20  1  0  0  0  0
 19 42  1  0  0  0  0
 19 43  1  0  0  0  0
 20 21  1  0  0  0  0
 20 44  1  0  0  0  0
 20 45  1  0  0  0  0
 21 22  1  0  0  0  0
 21 47  1  0  0  0  0
 21 48  1  0  0  0  0
 22 23  1  0  0  0  0
 22 49  1  0  0  0  0
 22 50  1  0  0  0  0
 23 51  1  0  0  0  0
 23 52  1  0  0  0  0
 23 53  1  0  0  0  0
M  END

> <PUBCHEM_BONDANNOTATIONS>
11  15  8
14  18  8
15  17  8
17  18  8
3  24  6
4  25  5
7  11  8
7  14  8

> <StdInChI>
InChI=1S/C21H30O2/c1-5-6-7-8-15-12-18(22)20-16-11-14(2)9-10-17(16)21(3,4)23-19(20)13-15/h11-13,16-17,22H,5-10H2,1-4H3/t16-,17-/m1/s1

> <StdInChIKey>
CYQFCXCEBYINGO-IAGOWNOFSA-N

> <AuxInfo>
1/0/N:23,16,12,13,22,21,20,19,8,6,9,18,15,10,17,4,3,14,11,7,5,2,1/E:(3,4)/it:im/rA:53cOOCCCCCCCCCCCCCCCCCCCCCHHHHHHHHHHHHHHHHHHHHHHHHHHHHHH/rB:;;s3;s1s3;s3;s4;s6;s4;s8d9;s1s7;s5;s5;s2d7;d11;s10;s15;s14d17;s17;s19;s20;s21;s22;s3;s4;s6;s6;s8;s8;s9;s12;s12;s12;s13;s13;s13;s15;s16;s16;s16;s18;s19;s19;s20;s20;s2;s21;s21;s22;s22;s23;s23;s23;/rC:-.0846,1.7136,-1.3352;1.5846,-2.5765,-.3298;2.2975,1.8127,-1.0279;2.276,.2416,-1.0454;.9984,2.4582,-1.6489;3.6716,2.2869,-1.5958;.9233,-.3434,-.7623;4.8852,1.6,-.9019;3.4249,-.2647,-.2846;4.6476,.302,-.2668;-.2024,.5068,-.9311;.7247,3.8786,-1.0621;1.0196,2.5657,-3.2046;.6859,-1.7005,-.4074;-1.5061,.0315,-.6889;5.766,-.3484,.4107;-1.7219,-1.3007,-.2763;-.6135,-2.1555,-.131;-3.0759,-1.8108,.035;-3.4089,-1.5711,1.5274;-4.81,-2.1002,1.9047;-5.184,-1.8491,3.3843;-6.5924,-2.3752,3.7265;2.2877,2.0921,.0341;2.4577,-.0844,-2.0746;3.7646,3.3731,-1.5197;3.7192,2.0398,-2.6595;5.6935,1.5011,-1.6323;5.2412,2.2795,-.1227;3.3177,-1.0935,.242;.5822,3.8436,.0203;-.1758,4.3296,-1.4869;1.5556,4.5574,-1.2646;1.1839,1.5901,-3.665;.08,2.9613,-3.5981;1.8096,3.2374,-3.5474;-2.3052,.66,-.8117;6.5634,-.545,-.3081;6.1548,.2906,1.2045;5.5194,-1.3107,.8683;-.7545,-3.1235,.178;-3.1438,-2.8811,-.1862;-3.8203,-1.3307,-.6054;-3.3608,-.4989,1.7414;-2.6628,-2.0684,2.1562;1.4023,-3.4032,-.0858;-5.5508,-1.6154,1.2624;-4.8452,-3.1754,1.705;-5.1477,-.7763,3.5939;-4.4548,-2.3391,4.0356;-6.8223,-2.1776,4.7742;-7.3449,-1.8817,3.1079;-6.6498,-3.4521,3.5559;

> <Formula>
C21 H30 O2

> <Mw>
314.4617

> <SMILES>
O1C2=C([H])C(C([H])([H])C([H])([H])C([H])([H])C([H])([H])C([H])([H])[H])=C([H])C(=C2[C@]2([H])C([H])=C(C([H])([H])[H])C([H])([H])C([H])([H])[C@@]2([H])C1(C([H])([H])[H])C([H])([H])[H])O[H]

> <CSID>
15266

$$$$
